30

N      -0.25762499      -0.21256868      -2.37202425
N      -0.40892486       1.11482912      -0.65107585
N      -0.88963302      -2.25374633       0.52451789
N      -1.98589566      -0.38127071       1.74766501
N       1.42108951      -2.22301885      -0.39583023
C       0.43757953       0.37456876      -1.38310127
C      -1.68432071       0.98310111      -1.17660710
C      -1.58810116       0.15514711      -2.25828823
C       0.30891613      -1.19648010      -3.29975570
C      -0.09920282       1.82891655       0.60746867
C       1.20586316       1.36848680       1.24541316
C       1.37050482       1.97236479       2.64520986
C       2.67939485       1.53838350       3.31057342
C      -1.42021758      -1.25135879       1.18145346
C       0.33686910      -2.20584298       0.08314262
H       1.48134337       0.18920573      -1.17109667
H      -2.54354889       1.43125116      -0.69555994
H      -2.34697145      -0.22841490      -2.92771616
H      -0.50775720      -1.80673504      -3.69640370
H       0.82682703      -0.68869241      -4.12209062
H       0.99554788      -1.83285190      -2.72431525
H      -0.08865796       2.90677997       0.38966488
H      -0.93903067       1.58848254       1.27620885
H       1.20140596       0.26949553       1.31815845
H       2.06864329       1.65156056       0.61926890
H       0.51446556       1.66132697       3.26404864
H       1.33051774       3.07280088       2.58196088
H       2.72791774       0.44407790       3.40339996
H       2.77430094       1.96686935       4.31733853
H       3.55150019       1.86270151       2.72336309
