35

N       0.94157379      -0.00946470      -0.07728334
N      -2.94465784       1.93007631       0.36696723
N      -1.21789074       3.35715242      -0.73060976
N      -2.39958434      -0.38555029       1.10626392
C       2.39060019       0.11589330      -0.51166904
C       0.83152657       1.09424899       0.97521528
C       2.63837268       1.62483512      -0.60389821
C       1.65986209       2.26022161       0.42688011
C       0.01789806       0.27727991      -1.24022133
C       0.60419306      -1.35361410       0.54910061
C       0.68079322      -2.53979091      -0.40153918
C       0.36707358      -3.84105600       0.35235821
C       0.39589548      -5.06625506      -0.56494280
C      -2.02016971       2.66360363      -0.20710241
C      -2.64042130       0.71892579       0.75097596
H       2.54078618      -0.43776578      -1.44391262
H       2.99017973      -0.34910615       0.28227248
H      -0.22644250       1.31100677       1.14293822
H       1.25705438       0.67032537       1.89361665
H       2.42588444       1.99180827      -1.61542048
H       3.68961808       1.84931422      -0.38881728
H       0.99533818       2.99440540      -0.04733984
H       2.19028691       2.75910622       1.24606516
H       0.33937834      -0.32255892      -2.09631679
H      -0.99540220       0.00263634      -0.93160250
H       0.04204341       1.34607131      -1.47446872
H       1.30873779      -1.47787822       1.38433523
H      -0.41661262      -1.23368752       0.95093485
H       1.67868650      -2.61541674      -0.86406628
H      -0.04933942      -2.42064987      -1.21541335
H      -0.62343328      -3.74798992       0.82377555
H       1.09165814      -3.97247234       1.17273361
H       0.17244194      -5.98476916      -0.00632808
H       1.38311118      -5.19052102      -1.03447411
H      -0.34851755      -4.97444158      -1.36907972
