15

C      -2.28983380       0.42650657       1.10195966
C       2.29246336      -0.32367426      -1.13941276
F      -1.64393786       1.49521800       1.62905326
F      -2.46275327      -0.49181121       2.08998613
F      -3.52799868       0.84033363       0.69915072
F       3.49152824       0.33090465      -1.14985750
F       1.60312754       0.05163066      -2.24482589
F       2.54882401      -1.65591111      -1.23431974
S      -1.34634150      -0.30545235      -0.37561550
S       1.34617008       0.09559746       0.45394249
N       0.02161430      -0.81379409       0.31219624
O      -2.13669904      -1.48460771      -0.72212632
O      -1.25709037       0.80613399      -1.31995480
O       2.18180058      -0.49040427       1.49970205
O       1.18099546       1.54619226       0.39099125
